599
Created with MDTraj 1.7.2, 2016-09-16
CA  108.160   29.500   96.650
CA  107.000   29.130   92.930
CA  103.950   27.240   91.470
CA  104.900   24.800   88.630
CA  102.730   23.090   86.010
CA  104.320   20.280   83.840
CA  101.820   19.890   81.070
CA  102.030   17.720   77.950
CA  103.450   20.200   75.510
CA  103.490   23.440   77.520
CA  104.700   24.030   81.160
CA  103.530   27.060   83.200
CA  105.240   28.780   86.300
CA  103.550   31.190   88.910
CA  104.440   33.370   91.890
CA  101.930   34.640   94.440
CA  102.810   38.310   94.350
CA  101.010   40.790   96.470
CA   97.250   40.170   96.100
CA   97.790   38.720   92.540
CA   98.880   35.110   91.890
CA  100.520   35.670   88.510
CA  102.140   33.900   85.620
CA  105.910   34.080   85.240
CA  105.810   34.560   81.430
CA  108.110   32.760   78.920
CA  111.340   34.530   77.950
CA  111.180   33.580   74.210
CA  107.860   35.590   73.930
CA  105.020   33.170   74.960
CA  102.790   33.070   78.090
CA  104.150   29.500   78.780
CA  107.320   27.610   77.770
CA  107.050   24.460   75.640
CA  107.660   21.340   77.910
CA  109.260   19.650   74.900
CA  112.820   18.620   75.600
CA  115.340   17.370   73.240
CA  118.990   16.380   72.930
CA  121.400   17.200   70.100
CA  123.290   14.490   68.250
CA  126.250   16.050   70.070
CA  124.270   15.680   73.440
CA  123.220   19.100   74.600
CA  119.700   19.610   75.910
CA  117.330   21.970   74.120
CA  114.060   23.060   75.860
CA  111.230   25.230   74.630
CA  111.490   26.610   71.080
CA  114.630   24.730   69.690
CA  113.050   21.450   71.030
CA  109.650   22.300   69.650
CA  110.990   23.290   66.180
CA  112.760   19.880   65.490
CA  110.160   17.410   66.790
CA  109.260   16.120   63.350
CA  112.720   16.300   61.500
CA  114.480   14.310   64.350
CA  111.490   12.570   66.080
CA  113.720   10.210   68.020
CA  115.640   12.480   70.350
CA  112.590   14.680   71.190
CA  110.440   13.890   74.320
CA  107.010   14.990   75.700
CA  104.800   14.130   78.670
CA  107.810   13.090   80.990
CA  105.530   12.270   83.940
CA  104.580    8.940   82.010
CA  108.120    7.460   82.310
CA  109.060    9.180   85.550
CA  108.940    6.120   87.920
CA  108.480    3.250   85.600
CA  109.450   -0.330   85.210
CA  109.390   -0.980   81.230
CA  107.190   -4.110   81.690
CA  104.540   -1.900   83.270
CA  101.300   -2.120   81.240
CA  100.940    1.740   80.390
CA  104.530    1.680   78.830
CA  103.730   -1.580   77.020
CA  100.790    0.230   75.430
CA  102.960    3.190   74.300
CA  105.960    1.160   72.980
CA  104.970    0.570   69.260
CA  103.220    3.950   69.140
CA  105.970    6.290   70.580
CA  108.950    7.270   68.390
CA  111.630    7.430   71.140
CA  113.280    4.210   72.130
CA  111.910    3.110   75.420
CA  114.200    0.370   76.900
CA  114.730   -1.690   80.170
CA  117.770   -0.940   82.370
CA  118.800   -3.180   85.480
CA  115.890   -5.570   86.580
CA  113.470   -3.510   84.490
CA  113.560    0.260   85.140
CA  112.230    2.050   82.010
CA  114.890    4.530   80.580
CA  114.860    6.160   77.120
CA  117.750    5.600   74.670
CA  118.930    8.810   72.990
CA  121.880    9.130   70.530
CA  123.720    5.770   71.480
CA  123.210    6.030   75.280
CA  120.620    5.820   78.110
CA  118.800    8.900   79.450
CA  116.970    8.730   82.700
CA  113.350    9.740   83.410
CA  113.910   12.100   86.430
CA  116.940   13.670   84.710
CA  114.950   14.300   81.430
CA  112.190   15.870   83.420
CA  114.610   17.980   85.490
CA  115.960   19.910   82.590
CA  112.350   21.320   82.260
CA  112.460   22.010   85.990
CA  115.720   24.020   85.690
CA  114.270   26.220   82.870
CA  111.030   26.830   85.060
CA  113.320   27.570   88.000
CA  115.650   29.810   86.010
CA  112.640   31.660   84.490
CA  111.580   32.540   88.030
CA  115.090   33.420   89.230
CA  115.650   35.980   86.590
CA  112.300   37.790   87.060
CA  112.170   37.820   90.920
CA  115.920   38.450   91.330
CA  116.680   35.890   94.170
CA  117.600   32.250   94.510
CA  114.440   30.120   93.970
CA  114.890   26.800   95.790
CA  111.180   26.070   96.720
CA  108.290   24.920   94.660
CA  104.760   23.310   94.240
CA  105.030   20.620   91.520
CA  102.050   19.080   89.740
CA  101.890   15.180   90.090
CA   98.850   12.920   88.740
CA   96.370   11.370   91.190
CA   96.140    7.910   89.830
CA   99.820    7.480   90.250
CA  101.520    5.450   92.990
CA  104.530    6.320   95.270
CA  107.110    4.920   92.670
CA  106.350    7.860   90.390
CA  106.190   10.460   93.370
CA  109.640    9.390   94.670
CA  110.910    9.800   91.160
CA  109.300   13.290   90.850
CA  110.970   14.250   94.160
CA  114.220   12.890   92.610
CA  113.570   15.140   89.620
CA  113.340   18.200   91.860
CA  116.640   17.420   93.550
CA  118.400   17.230   90.160
CA  116.880   20.650   89.170
CA  117.540   22.490   92.520
CA  114.130   22.820   94.100
CA  112.590   21.610   97.440
CA  109.110   20.070   96.630
CA  107.130   22.120   99.150
CA  103.610   20.960   98.040
CA  102.780   17.890   95.850
CA   99.390   18.780   94.240
CA   97.020   17.050   91.880
CA   95.410   19.100   89.010
CA   91.720   19.030   90.200
CA   92.830   20.130   93.710
CA   94.810   22.990   92.240
CA   91.990   24.070   89.870
CA   89.560   24.430   92.680
CA   91.870   27.040   94.490
CA   92.510   28.900   91.290
CA   88.710   29.370   90.270
CA   87.800   30.210   94.000
CA   85.550   27.180   94.630
CA   87.620   26.150   97.650
CA   85.050   26.160  100.350
CA   83.830   23.150  102.250
CA   81.050   22.010  104.680
CA   77.800   20.350  103.570
CA   79.420   18.260  100.900
CA   80.430   20.970   98.430
CA   81.030   19.100   94.990
CA   82.540   20.500   91.660
CA   83.530   19.120   88.200
CA   86.880   19.640   86.510
CA   87.250   19.030   82.770
CA   90.960   18.260   81.750
CA   91.380   19.070   78.010
CA   95.030   20.540   77.750
CA   97.820   19.200   75.670
CA   97.180   15.630   76.680
CA   94.280   13.170   76.390
CA   90.820   14.000   77.700
CA   89.970   13.270   81.370
CA   87.170   14.270   83.840
CA   87.230   14.570   87.830
CA   84.270   15.020   90.190
CA   85.680   16.300   93.630
CA   84.390   17.200   97.170
CA   85.890   20.050   99.020
CA   86.750   19.480  102.670
CA   89.310   20.420  105.300
CA   90.370   16.980  106.480
CA   93.990   17.310  105.400
CA   94.010   21.150  105.570
CA   93.050   21.840  101.940
CA   96.100   20.220  100.370
CA   93.870   17.610   98.630
CA   90.180   17.260   97.930
CA   88.200   14.040   97.790
CA   87.880   12.300   94.400
CA   84.360   10.860   94.030
CA   85.200    9.710   90.490
CA   87.610   10.160   87.490
CA   87.410    8.800   83.800
CA   88.340    9.850   80.310
CA   89.240    8.640   76.830
CA   92.540    7.900   74.820
CA   90.740    8.520   71.560
CA   90.140   12.030   72.810
CA   92.710   14.920   72.740
CA   96.420   14.660   71.940
CA   97.880   15.080   68.440
CA   95.210   12.860   66.840
CA   92.580   15.650   67.510
CA   94.940   18.250   65.860
CA   95.920   15.830   63.020
CA   92.380   16.110   61.500
CA   93.160   19.730   60.480
CA   96.800   18.920   59.610
CA   95.620   16.080   57.320
CA   92.920   18.360   55.760
CA   95.620   21.010   55.070
CA   97.880   18.500   53.310
CA   95.000   17.140   51.170
CA   93.940   20.740   50.290
CA   97.560   21.410   49.470
CA   97.710   18.250   47.250
CA   94.460   19.140   45.420
CA   95.920   22.580   44.780
CA   99.800   22.290   44.240
CA  100.160   18.550   43.430
CA  102.570   17.300   46.240
CA  102.020   14.880   49.210
CA  103.840   16.620   52.090
CA  103.980   13.400   54.090
CA  107.300   12.450   52.510
CA  108.690   15.980   53.240
CA  109.130   16.130   57.080
CA  110.370   19.800   57.070
CA  107.260   20.930   55.310
CA  105.220   19.030   57.890
CA  107.530   20.630   60.720
CA  106.650   24.060   59.210
CA  102.960   23.020   58.950
CA  102.710   21.790   62.540
CA  103.590   25.180   63.910
CA  101.120   26.560   61.400
CA   97.890   24.550   62.220
CA   98.640   24.900   65.980
CA   98.370   28.720   65.500
CA   95.400   28.640   63.000
CA   93.300   26.810   65.660
CA   93.730   29.620   68.170
CA   92.710   32.030   65.350
CA   89.490   30.030   64.390
CA   88.390   30.440   68.140
CA   89.300   34.110   67.920
CA   87.660   35.080   64.520
CA   85.450   33.150   61.870
CA   88.110   32.130   59.340
CA   91.920   32.190   58.720
CA   94.140   31.910   55.670
CA   97.170   29.570   56.040
CA  100.060   30.620   54.100
CA  103.630   29.550   54.410
CA  105.910   30.840   51.700
CA  108.170   28.390   49.780
CA  106.850   25.260   51.580
CA  108.100   22.260   49.480
CA  110.890   21.870   46.790
CA  110.260   22.500   43.020
CA  112.220   22.950   39.720
CA  111.520   26.740   39.210
CA  112.200   27.160   42.980
CA  109.760   26.130   45.860
CA  105.990   26.000   45.690
CA  104.020   28.360   48.050
CA  101.540   27.120   50.570
CA   98.050   28.910   50.660
CA   94.890   27.260   52.080
CA   91.640   28.760   53.210
CA   90.380   27.440   56.570
CA   86.960   28.270   58.320
CA   85.670   27.800   61.860
CA   82.710   25.700   60.320
CA   85.240   23.420   58.590
CA   87.160   23.050   61.930
CA   83.810   22.450   63.590
CA   82.840   19.720   61.120
CA   86.340   18.100   61.650
CA   86.010   17.900   65.530
CA   82.330   16.790   65.100
CA   81.440   13.650   67.060
CA   84.650   13.920   69.080
CA   83.450   16.980   71.200
CA   80.150   15.140   71.980
CA   82.250   12.110   73.180
CA   83.400   14.120   76.220
CA   80.030   13.800   77.860
CA   80.200    9.940   77.690
CA   83.040    9.660   80.330
CA   81.390   12.570   82.360
CA   78.060   10.590   82.570
CA   79.950    7.420   83.690
CA   81.960    9.560   86.150
CA   78.630   10.850   87.520
CA   77.480    7.200   87.900
CA   80.810    6.230   89.420
CA   80.250    9.140   91.970
CA   76.560    8.380   92.460
CA   75.310   11.750   91.330
CA   72.960   13.610   88.970
CA   73.530   16.850   87.000
CA   71.530   18.940   89.630
CA   73.900   17.760   92.430
CA   77.030   19.400   90.870
CA   77.740   22.840   92.410
CA   79.870   24.160   89.570
CA   81.780   23.100   86.550
CA   85.430   24.230   85.770
CA   87.590   23.450   82.780
CA   91.380   23.490   82.390
CA   93.930   23.430   79.460
CA   94.180   25.660   76.340
CA   91.710   23.620   74.050
CA   88.780   24.470   76.520
CA   88.980   27.870   74.810
CA   87.750   26.200   71.540
CA   84.110   27.200   70.840
CA   82.730   23.740   69.820
CA   84.000   22.430   73.110
CA   82.640   25.290   75.200
CA   79.230   25.180   73.440
CA   78.870   21.500   74.340
CA   79.880   21.950   77.940
CA   77.780   25.030   78.460
CA   74.690   23.340   76.950
CA   75.150   20.180   79.110
CA   75.300   22.180   82.400
CA   72.830   24.750   81.080
CA   75.110   27.830   81.790
CA   78.650   29.070   80.620
CA   81.840   27.830   82.320
CA   83.110   30.890   84.350
CA   85.960   33.270   83.320
CA   87.620   34.040   86.700
CA   90.980   32.440   85.750
CA   92.230   31.360   82.240
CA   92.130   27.560   81.810
CA   95.820   26.690   80.680
CA   97.450   28.610   83.620
CA   94.660   27.600   86.080
CA   96.600   24.730   87.700
CA   99.770   26.970   87.950
CA   97.770   29.840   89.510
CA   96.120   27.490   92.050
CA   99.580   25.850   92.860
CA  100.880   29.460   93.550
CA   97.850   29.960   95.920
CA   98.620   26.910   97.890
CA  102.200   28.220   98.360
CA  101.640   31.980   98.970
CA   98.440   31.870  101.100
CA   97.980   28.530  102.830
CA   99.710   27.000  105.950
CA  103.410   27.150  105.530
CA  106.210   24.850  106.930
CA  107.500   25.770  110.490
CA  111.250   25.140  109.340
CA  112.870   23.440  106.290
CA  114.390   19.890  107.080
CA  118.020   19.750  108.200
CA  120.650   17.020  107.780
CA  120.890   16.580  111.720
CA  120.120   13.300  113.420
CA  119.990   11.290  110.100
CA  123.100   11.090  110.590
CA  124.600   12.910  107.440
CA  125.320   10.820  104.280
CA  128.300   10.430  101.990
CA  128.480   12.520   98.890
CA  130.630   12.550   95.730
CA  130.900   12.960   91.950
CA  130.700   10.780   88.850
CA  134.210    9.610   87.830
CA  134.960    8.080   84.390
CA  133.550    4.570   83.680
CA  130.500    5.070   85.890
CA  132.490    4.980   89.110
CA  131.450    6.770   92.280
CA  134.170    8.960   93.970
CA  133.220   10.030   97.430
CA  134.520   13.310   98.860
CA  132.420   13.560  102.040
CA  132.350   10.510  104.210
CA  129.270    9.650  106.200
CA  128.720   10.690  109.830
CA  130.930   13.850  109.610
CA  130.450   16.650  112.250
CA  128.980   19.800  110.650
CA  130.320   22.440  109.500
CA  132.810   20.560  107.290
CA  134.760   20.630  104.010
CA  137.220   18.340  101.890
CA  138.740   18.150   98.420
CA  140.560   16.180   95.670
CA  142.030   17.060   92.270
CA  140.610   15.630   89.090
CA  141.160   16.000   85.340
CA  139.660   16.100   81.750
CA  139.190   12.820   80.010
CA  139.970   13.980   76.430
CA  142.680   16.290   75.030
CA  142.310   20.080   74.490
CA  138.770   20.710   75.900
CA  137.430   24.150   76.730
CA  135.090   22.980   79.470
CA  134.470   20.180   82.040
CA  131.140   18.890   83.530
CA  130.890   17.920   87.290
CA  127.940   15.480   88.200
CA  127.140   15.460   91.980
CA  125.940   12.220   93.670
CA  124.670   11.290   97.200
CA  125.130    7.630   98.570
CA  127.620    4.850   99.020
CA  126.750    2.750   95.890
CA  129.600    1.680   93.590
CA  127.840    2.640   90.390
CA  127.040    6.420   89.650
CA  123.530    5.700   88.540
CA  122.670    3.570   91.630
CA  123.370    6.690   93.760
CA  120.780    9.580   93.930
CA  121.600   12.670   91.950
CA  122.110   16.190   92.940
CA  122.450   17.510   89.340
CA  125.520   19.180   87.690
CA  127.580   22.250   86.940
CA  130.450   22.900   84.490
CA  133.920   24.610   84.870
CA  134.720   26.730   81.800
CA  137.980   28.120   80.280
CA  140.070   24.810   80.690
CA  143.980   24.860   79.950
CA  144.910   23.240   76.490
CA  146.630   20.020   77.580
CA  146.460   16.300   76.830
CA  144.300   13.750   78.850
CA  145.010   13.280   82.580
CA  146.750   16.620   82.610
CA  144.400   19.510   83.670
CA  144.750   19.990   87.510
CA  141.160   20.840   88.640
CA  140.520   20.800   92.400
CA  136.990   19.880   93.460
CA  135.680   21.030   96.920
CA  132.620   19.950   99.010
CA  131.760   22.560  101.590
CA  128.850   22.010  104.170
CA  127.790   25.060  106.200
CA  126.140   25.100  109.690
CA  122.540   24.880  108.660
CA  123.290   21.980  106.220
CA  123.680   24.020  103.130
CA  125.950   22.170  100.660
CA  128.230   23.920   98.210
CA  130.170   21.840   95.580
CA  132.740   23.510   93.380
CA  135.550   23.150   90.850
CA  138.680   25.320   90.720
CA  141.420   25.620   87.990
CA  145.150   25.890   89.120
CA  146.020   27.830   85.910
CA  143.510   30.700   85.390
CA  142.650   30.720   89.040
CA  138.990   30.330   87.960
CA  136.170   28.570   89.820
CA  132.580   27.530   89.390
CA  130.090   25.940   91.790
CA  126.730   24.510   92.680
CA  124.520   25.070   95.960
CA  122.200   22.490   97.490
CA  120.050   23.280  100.400
CA  119.810   21.090  103.590
CA  116.250   20.060  102.770
CA  117.320   18.850   99.240
CA  119.350   16.190  100.890
CA  117.640   12.770  100.940
CA  115.840   11.630  103.990
CA  116.340    8.610  106.260
CA  113.610    6.310  104.680
CA  115.160    7.010  101.220
CA  118.580    6.040  102.560
CA  116.970    2.720  103.860
CA  115.240    2.090  100.420
CA  118.540    2.600   98.460
CA  120.350   -0.080  100.660
CA  117.500   -2.560  100.200
CA  118.070   -2.620   96.460
CA  121.880   -2.750   97.110
CA  121.520   -6.160   99.170
CA  119.260   -7.650   96.490
CA  121.820   -6.690   93.830
CA  125.240   -7.240   95.420
CA  126.040   -9.640   92.540
CA  125.410   -6.590   90.190
CA  128.220   -4.570   92.050
CA  130.720   -7.390   91.530
CA  129.500   -7.520   87.870
CA  130.030   -3.720   87.810
CA  133.680   -4.320   88.860
CA  134.090   -6.390   85.620
CA  132.070   -3.840   83.470
CA  134.330   -0.970   84.920
CA  137.700   -2.730   84.060
CA  136.220   -3.860   80.580
CA  135.510   -0.170   80.020
CA  139.030    0.770   81.030
CA  140.740   -1.830   78.700
CA  138.220   -0.610   76.000
CA  139.120    3.060   76.550
CA  142.770    1.820   76.750
CA  142.780    0.050   73.330
CA  140.840    3.010   71.880
CA  143.090    5.750   73.300
CA  146.170    3.830   71.980
CA  144.600    2.910   68.490
CA  143.900    6.650   67.950
CA  147.480    7.640   69.000
CA  149.020    4.850   66.680
CA  146.770    6.220   63.730
CA  148.160    9.870   64.140
CA  151.720    8.500   64.200
CA  151.180    6.160   61.160
CA  150.750    9.030   58.540
CA  150.760    8.120   54.850
CA  152.100    4.600   55.530
CA  148.510    3.430   56.000
CA  145.980    4.170   53.170
CA  142.820    6.270   53.270
CA  140.350    3.270   53.230
CA  142.410    1.320   55.760
CA  142.160    4.380   58.020
CA  138.370    4.970   57.340
CA  137.560    1.360   58.140
CA  139.510    1.680   61.530
CA  137.610    4.970   62.160
CA  134.350    2.970   61.840
CA  135.270    0.370   64.630
CA  136.530    3.130   67.010
CA  132.960    4.800   66.790
CA  131.220    1.480   67.340
CA  133.610    0.760   70.420
CA  133.410    4.420   71.810
CA  129.590    4.170   71.810
CA  129.570    0.860   73.660
CA  131.750    2.250   76.440
CA  128.780    4.620   77.310
CA  126.780    1.330   77.710
CA  126.470   -1.340   80.400
CA  127.270   -4.560   78.410
CA  130.820   -6.060   78.920
CA  129.880   -8.680   76.330
CA  129.290   -5.960   73.720
CA  132.430   -4.110   74.750
CA  134.450   -7.380   74.260
CA  132.860   -7.820   70.780
CA  133.910   -4.350   69.760
CA  137.440   -4.850   71.130
CA  137.700   -7.970   68.800
CA  136.260   -5.910   65.810
CA  138.660   -2.980   66.480
CA  141.550   -5.460   66.600
CA  140.670   -7.340   63.290
CA  140.820   -4.060   61.300
CA  143.870   -2.950   63.260
CA  146.200   -5.700   62.280
CA  147.040   -3.310   59.310
CA  148.190   -0.630   61.850
CA  150.100   -3.430   63.580
CA  151.800   -4.800   60.510
CA  153.360   -1.340   59.670
CA  157.120   -1.440   58.720
