599
Created with MDTraj 1.7.2, 2016-09-16
CA   81.800   55.960  103.120
CA   80.220   54.770   99.750
CA   77.710   51.780   99.460
CA   78.340   49.300   96.700
CA   75.430   46.770   95.670
CA   76.760   43.560   94.470
CA   73.550   41.910   93.240
CA   73.410   39.060   90.620
CA   71.160   41.190   88.390
CA   71.960   44.870   89.160
CA   75.070   46.380   90.700
CA   74.660   49.970   91.870
CA   76.790   52.460   93.780
CA   75.640   55.310   96.010
CA   76.600   58.010   98.530
CA   74.510   59.390  101.470
CA   74.890   63.190  101.260
CA   73.530   64.980  104.360
CA   69.960   63.220  104.390
CA   69.900   62.430  100.690
CA   71.100   59.330   98.880
CA   73.040   60.240   95.640
CA   73.050   57.430   93.020
CA   75.960   57.710   90.530
CA   75.080   57.810   86.780
CA   76.990   55.620   84.270
CA   78.670   56.230   80.780
CA   75.270   55.940   79.130
CA   73.710   58.120   81.950
CA   71.790   55.350   83.700
CA   71.520   55.140   87.620
CA   71.620   51.330   87.850
CA   74.170   49.050   86.120
CA   73.490   45.410   85.070
CA   76.080   43.190   86.900
CA   77.150   40.650   84.270
CA   80.800   41.110   83.340
CA   83.060   40.240   80.390
CA   86.900   39.710   79.870
CA   87.610   40.620   76.250
CA   90.510   39.540   73.940
CA   91.270   43.190   73.350
CA   92.380   43.760   77.000
CA   89.220   45.490   78.350
CA   86.950   44.290   81.270
CA   83.400   45.210   80.410
CA   80.480   45.360   82.920
CA   76.830   45.340   82.120
CA   75.090   46.260   78.780
CA   78.600   46.340   77.130
CA   78.950   42.760   78.210
CA   75.470   41.720   76.910
CA   76.140   43.300   73.470
CA   79.190   41.090   72.770
CA   77.700   38.070   74.460
CA   77.280   35.880   71.270
CA   80.800   36.440   69.820
CA   82.390   36.200   73.420
CA   80.540   33.240   75.130
CA   83.130   31.800   77.540
CA   84.670   35.030   79.080
CA   81.200   36.630   79.660
CA   80.100   35.750   83.160
CA   77.370   36.360   85.610
CA   76.180   34.750   88.890
CA   79.240   34.800   91.220
CA   77.310   34.230   94.500
CA   76.500   30.680   93.190
CA   80.310   29.850   93.190
CA   81.130   31.410   96.600
CA   82.830   28.820   98.970
CA   81.670   25.910   96.880
CA   83.550   22.910   95.540
CA   83.230   21.790   91.940
CA   81.460   18.440   92.670
CA   78.870   19.950   95.020
CA   75.420   18.800   93.720
CA   73.910   22.330   93.290
CA   77.060   23.480   91.280
CA   76.770   20.310   89.150
CA   73.140   21.310   88.430
CA   74.230   24.900   87.590
CA   77.090   24.000   85.240
CA   74.690   22.290   82.790
CA   72.900   25.610   81.940
CA   75.930   27.880   81.940
CA   78.070   28.270   78.750
CA   81.210   29.590   80.630
CA   83.130   26.650   81.990
CA   83.000   26.280   85.790
CA   85.850   23.670   86.280
CA   88.200   22.310   89.090
CA   90.660   24.620   90.890
CA   93.680   22.950   92.480
CA   92.030   21.670   95.570
CA   88.630   21.140   93.960
CA   87.240   24.690   94.220
CA   84.550   25.570   91.620
CA   86.480   28.240   89.480
CA   85.780   29.620   86.000
CA   88.210   29.110   83.150
CA   88.860   32.520   81.570
CA   91.400   33.250   78.800
CA   93.560   30.050   78.900
CA   93.720   29.990   82.770
CA   91.390   29.450   85.850
CA   89.820   32.420   87.690
CA   88.540   32.350   91.240
CA   85.030   33.980   92.070
CA   86.630   36.850   94.040
CA   88.650   37.790   90.960
CA   85.500   37.950   88.720
CA   83.490   39.730   91.520
CA   86.350   42.210   91.860
CA   85.810   43.330   88.200
CA   82.310   44.600   88.890
CA   83.650   46.320   92.000
CA   86.430   48.120   89.950
CA   83.890   49.850   87.760
CA   81.840   51.100   90.770
CA   84.990   52.110   92.500
CA   86.090   54.210   89.390
CA   82.530   55.490   88.670
CA   82.830   56.950   92.240
CA   86.340   58.330   91.600
CA   85.470   60.390   88.570
CA   82.360   61.720   90.400
CA   84.550   62.880   93.260
CA   87.280   65.570   93.530
CA   89.210   63.570   96.110
CA   90.130   59.840   95.270
CA   88.010   57.210   97.090
CA   89.060   53.870   98.660
CA   86.730   53.320  101.730
CA   83.500   51.380  100.910
CA   80.660   49.100  102.240
CA   79.810   45.800  100.340
CA   76.690   43.690  100.400
CA   76.270   39.950  101.190
CA   73.340   37.430  101.430
CA   71.650   37.270  104.850
CA   72.340   33.510  105.430
CA   76.110   33.270  104.660
CA   79.110   31.490  106.420
CA   81.990   33.680  107.840
CA   84.500   32.240  105.230
CA   81.850   33.000  102.510
CA   81.510   36.550  103.870
CA   85.370   37.010  104.090
CA   85.540   35.950  100.420
CA   83.030   38.740   99.490
CA   85.540   41.090  101.240
CA   88.470   39.820   99.320
CA   86.820   40.840   95.930
CA   87.180   44.350   97.560
CA   90.820   43.700   98.190
CA   91.590   42.480   94.640
CA   89.600   45.590   93.280
CA   91.820   47.730   95.520
CA   89.060   48.770   98.060
CA   89.420   49.350  101.790
CA   86.290   47.390  103.160
CA   84.870   48.940  106.330
CA   81.850   46.560  106.870
CA   79.660   44.130  105.100
CA   75.860   44.240  105.150
CA   73.090   41.700  104.510
CA   71.420   42.580  101.140
CA   67.810   42.120  102.480
CA   68.750   44.130  105.690
CA   69.990   46.900  103.420
CA   66.610   46.980  101.550
CA   64.590   46.790  104.760
CA   66.860   49.630  106.230
CA   66.500   51.850  103.180
CA   62.680   51.470  103.160
CA   62.740   51.840  106.980
CA   64.610   55.240  106.800
CA   62.220   56.220  104.020
CA   58.980   55.220  105.780
CA   57.850   55.030  109.390
CA   56.310   54.650  112.150
CA   55.740   52.980  115.560
CA   56.370   49.320  116.530
CA   56.280   46.550  113.910
CA   57.350   42.860  113.240
CA   57.560   41.930  109.500
CA   58.820   39.230  107.140
CA   61.390   40.590  104.700
CA   61.230   38.260  101.500
CA   63.830   38.770   98.840
CA   64.170   36.620   95.620
CA   66.870   37.420   93.110
CA   68.950   36.420   90.150
CA   70.590   33.540   92.150
CA   69.660   34.120   95.740
CA   66.780   33.590   98.260
CA   66.790   35.320  101.620
CA   63.890   35.580  104.100
CA   64.500   37.580  107.250
CA   62.080   38.160  110.190
CA   62.530   41.730  111.500
CA   61.380   44.010  114.340
CA   61.600   47.660  113.720
CA   60.780   49.790  116.720
CA   60.600   53.410  115.980
CA   60.400   55.720  118.980
CA   60.250   59.560  118.480
CA   62.040   59.330  115.170
CA   64.850   57.140  116.380
CA   64.670   53.740  114.740
CA   65.910   50.390  116.230
CA   66.170   47.450  113.820
CA   66.320   43.900  115.060
CA   66.750   40.740  112.900
CA   64.730   38.010  114.770
CA   65.620   35.080  112.440
CA   67.140   34.570  108.970
CA   67.280   31.630  106.550
CA   67.840   31.260  102.810
CA   69.250   29.460   99.850
CA   72.330   30.610   97.880
CA   71.320   28.530   94.940
CA   67.620   29.500   94.570
CA   66.800   32.330   92.140
CA   65.950   33.710   88.640
CA   68.290   31.340   86.790
CA   66.530   28.310   88.340
CA   63.040   29.720   87.360
CA   64.440   30.350   83.860
CA   65.980   26.910   83.600
CA   62.690   24.950   83.520
CA   61.220   27.160   80.660
CA   64.590   27.040   78.870
CA   64.580   23.240   79.250
CA   60.840   23.130   78.140
CA   61.530   25.240   74.980
CA   64.480   23.310   73.530
CA   62.730   20.130   74.230
CA   59.520   21.140   72.230
CA   61.850   22.780   69.510
CA   63.620   19.460   68.950
CA   60.280   17.520   68.600
CA   58.770   20.020   66.030
CA   61.700   21.120   63.720
CA   64.030   17.990   64.290
CA   67.290   19.680   65.440
CA   68.710   20.660   68.900
CA   69.910   24.250   69.610
CA   72.560   22.930   72.090
CA   76.060   23.700   70.580
CA   75.180   27.050   69.120
CA   75.940   30.130   71.250
CA   73.840   32.460   69.060
CA   70.680   30.340   69.410
CA   71.170   29.740   73.190
CA   71.730   33.480   73.880
CA   68.440   34.210   71.950
CA   66.500   31.550   74.010
CA   67.770   33.010   77.180
CA   66.580   36.470   76.250
CA   63.250   34.950   74.850
CA   62.780   33.020   78.190
CA   63.560   36.080   80.300
CA   61.200   38.440   78.350
CA   58.700   35.630   78.050
CA   58.640   35.510   81.840
CA   58.370   39.320   82.270
CA   55.570   39.710   79.790
CA   53.540   37.060   81.770
CA   53.410   39.390   84.790
CA   51.300   41.640   82.560
CA   49.780   39.110   80.130
CA   47.930   35.780   80.790
CA   49.590   34.100   77.770
CA   52.650   34.800   75.410
CA   54.050   33.350   72.190
CA   57.760   32.600   72.240
CA   58.830   32.730   68.680
CA   62.310   32.990   66.980
CA   62.580   33.320   63.230
CA   65.830   31.920   61.660
CA   67.120   30.290   64.980
CA   69.070   27.560   63.190
CA   69.470   25.760   59.780
CA   69.900   22.240   58.650
CA   70.370   20.180   55.310
CA   66.840   21.050   54.240
CA   66.610   24.760   55.060
CA   66.260   27.430   57.810
CA   64.560   26.300   61.070
CA   62.350   28.680   62.850
CA   60.950   28.290   66.370
CA   57.390   29.040   67.650
CA   56.300   27.780   71.100
CA   53.050   28.730   72.910
CA   53.330   29.430   76.610
CA   50.590   30.190   79.210
CA   51.240   31.820   82.670
CA   49.310   28.880   84.210
CA   51.590   26.300   82.580
CA   54.670   28.430   83.490
CA   53.660   28.280   87.220
CA   53.480   24.550   87.070
CA   57.000   24.420   85.320
CA   58.690   26.610   88.030
CA   56.660   25.030   90.950
CA   59.660   23.340   92.640
CA   61.500   26.750   92.820
CA   58.440   28.650   93.830
CA   57.140   26.420   96.740
CA   60.750   25.870   97.740
CA   61.060   29.590   98.720
CA   58.190   28.970  101.400
CA   60.300   26.050  102.980
CA   63.100   28.350  104.580
CA   60.370   30.880  105.420
CA   58.480   28.410  107.720
CA   61.820   27.750  109.570
CA   62.470   31.440  110.020
CA   59.080   31.960  111.690
CA   59.760   29.030  114.140
CA   63.360   30.390  115.170
CA   61.730   33.820  115.700
CA   58.920   32.100  117.640
CA   56.140   33.840  115.800
CA   52.850   32.670  114.190
CA   51.880   33.400  110.470
CA   49.180   35.400  112.330
CA   51.760   37.310  114.540
CA   53.640   38.960  111.650
CA   52.180   42.400  110.620
CA   53.040   42.390  106.880
CA   55.200   40.500  104.240
CA   57.510   42.910  102.530
CA   58.370   41.850   98.990
CA   61.850   42.800   97.660
CA   63.660   41.870   94.300
CA   62.660   41.150   90.750
CA   61.290   37.550   90.800
CA   58.560   38.330   93.380
CA   56.810   40.200   90.520
CA   55.740   36.820   89.130
CA   52.050   36.310   90.020
CA   52.580   32.740   91.070
CA   55.360   33.710   93.680
CA   53.320   36.500   95.270
CA   50.150   34.380   95.120
CA   51.920   31.620   97.020
CA   53.320   33.960   99.690
CA   49.790   35.570   99.830
CA   48.310   32.030  100.220
CA   50.820   31.090  102.890
CA   50.450   34.390  104.780
CA   46.590   34.400  104.710
CA   46.790   38.170  104.160
CA   47.780   40.500  101.280
CA   51.630   41.080  100.710
CA   53.060   44.700  100.700
CA   54.300   45.700   97.170
CA   55.700   48.950   98.630
CA   59.540   48.390   98.270
CA   61.240   49.080   94.840
CA   64.600   47.270   94.930
CA   66.450   48.770   91.920
CA   68.550   51.470   93.800
CA   67.610   50.700   97.320
CA   70.110   47.900   97.980
CA   72.990   50.310   97.150
CA   71.120   53.080   99.160
CA   70.860   50.800  102.280
CA   74.570   50.270  102.100
CA   75.370   53.950  101.680
CA   73.190   54.600  104.780
CA   74.920   51.820  106.640
CA   78.350   53.470  105.730
CA   76.690   56.660  106.870
CA   76.160   55.310  110.380
CA   79.940   54.620  110.680
CA   81.110   58.170  109.960
CA   78.610   59.940  112.130
CA   76.640   61.110  109.190
CA   73.550   59.000  109.690
CA   72.040   59.610  113.130
CA   69.140   58.000  114.950
CA   69.330   54.590  113.120
CA   70.370   51.560  115.250
CA   70.990   48.040  114.030
CA   71.690   45.520  116.790
CA   73.850   42.610  115.400
CA   72.860   38.980  115.720
CA   74.520   35.900  114.130
CA   73.090   34.690  110.810
CA   73.730   30.980  111.110
CA   74.820   28.540  113.880
CA   78.440   27.610  114.740
CA   78.820   23.830  115.380
CA   80.840   20.680  115.270
CA   80.270   17.040  114.340
CA   79.350   14.390  116.970
CA   80.040   10.660  116.200
CA   77.720    9.510  113.350
CA   77.980   12.690  111.340
CA   75.490   14.730  113.350
CA   75.630   18.420  113.470
CA   75.900   19.540  117.060
CA   75.090   23.220  117.540
CA   77.480   25.240  119.900
CA   76.880   29.070  119.550
CA   73.270   29.240  118.380
CA   71.510   31.290  115.740
CA   70.800   35.010  116.570
CA   73.430   35.360  119.310
CA   74.100   38.940  120.160
CA   77.800   39.560  119.420
CA   80.360   40.400  121.040
CA   79.910   36.980  122.600
CA   82.020   34.200  124.210
CA   81.670   30.490  124.520
CA   83.860   27.600  125.760
CA   84.050   23.680  125.250
CA   86.340   20.800  126.390
CA   87.900   18.580  123.570
CA   89.660   15.240  123.860
CA   91.160   12.230  121.940
CA   88.690    9.570  120.770
CA   91.240    7.120  119.360
CA   94.460    5.720  121.090
CA   98.090    7.090  120.640
CA   97.440   10.450  118.980
CA  100.150   13.060  118.640
CA   98.840   15.470  116.120
CA   95.260   16.550  116.450
CA   92.610   18.850  114.860
CA   89.170   20.440  115.480
CA   86.980   20.970  112.410
CA   84.280   23.710  113.170
CA   81.270   24.070  110.890
CA   78.550   26.600  110.220
CA   74.900   25.900  109.690
CA   72.150   23.610  110.690
CA   71.930   20.780  108.130
CA   71.070   17.320  109.670
CA   74.280   15.700  108.200
CA   77.440   17.430  109.550
CA   79.080   16.970  106.080
CA   76.560   19.270  104.360
CA   77.500   22.480  106.330
CA   80.040   25.280  105.630
CA   83.680   25.310  106.450
CA   85.970   27.710  108.240
CA   89.110   25.520  107.840
CA   90.470   22.970  110.330
CA   92.240   24.110  113.600
CA   95.690   22.400  114.010
CA   96.630   22.300  117.710
CA   99.950   22.080  119.650
CA  101.550   18.610  120.030
CA  100.530   15.880  122.370
CA  102.300   12.740  123.800
CA  100.900    9.310  122.730
CA   98.550    7.780  125.350
CA   95.260    5.830  125.670
CA   92.160    7.610  124.370
CA   90.670   10.200  126.660
CA   94.000   11.240  128.410
CA   94.130   14.790  126.870
CA   91.580   17.370  128.230
CA   91.720   20.690  126.340
CA   89.400   23.660  126.900
CA   88.710   25.880  123.790
CA   87.220   29.490  124.260
CA   85.660   31.070  121.160
CA   85.180   34.830  121.500
CA   83.640   37.190  118.840
CA   85.030   40.740  118.210
CA   83.020   43.980  117.370
CA   83.780   43.460  113.570
CA   82.270   39.920  113.630
CA   85.660   38.260  113.680
CA   86.040   34.880  115.420
CA   89.000   34.700  117.860
CA   89.920   31.380  119.360
CA   92.150   30.580  122.370
CA   92.590   27.310  124.370
CA   94.070   26.040  127.570
CA   94.810   22.380  128.700
CA   92.990   21.180  131.780
CA   95.740   18.470  132.140
CA   97.930   20.990  133.790
CA   96.610   24.510  133.010
CA   98.890   25.460  130.050
CA   97.960   27.610  127.090
CA   97.430   25.750  123.690
CA   97.640   27.650  120.390
CA   95.480   27.380  117.200
CA   96.620   27.600  113.660
CA   93.970   27.570  110.870
CA   94.660   25.390  107.840
CA   93.820   26.990  104.480
CA   92.180   24.640  101.890
CA   89.880   26.830   99.700
CA   90.700   29.750   97.260
CA   93.510   32.270   97.180
CA   96.510   32.280   99.390
CA   96.760   35.560  101.390
CA  100.200   36.210  100.130
CA   98.980   36.230   96.520
CA   96.080   38.470   97.460
CA   98.760   41.070   98.730
CA  100.600   40.900   95.330
CA   97.320   41.630   93.700
CA   96.690   44.450   96.220
CA   99.890   46.070   95.160
CA   98.820   45.740   91.370
CA   95.500   47.300   92.300
CA   97.420   50.330   93.660
CA   99.650   50.560   90.590
CA   96.540   50.920   88.280
CA   95.400   53.900   90.530
CA   99.000   55.250   90.300
CA   98.830   55.280   86.490
CA   95.540   57.360   86.600
CA   97.370   59.830   88.960
CA  100.390   60.010   86.680
CA   98.140   60.640   83.720
CA   96.370   63.440   85.700
CA   99.650   65.230   86.530
CA  100.930   64.850   82.860
CA   97.680   66.430   81.630
CA   97.740   69.190   84.220
CA  101.300   69.980   83.280
CA  100.290   70.070   79.620
CA   97.590   72.650   80.620
CA  100.120   74.730   82.570
CA  102.740   74.760   79.850
CA  100.070   75.630   77.230
CA   98.840   78.620   79.470
CA  102.470   79.910   79.860
CA  103.210   79.400   76.090
CA   99.990   81.220   75.170
CA  100.760   84.200   77.330
CA  104.480   84.330   76.720
CA  103.490   84.540   72.890
CA  101.310   87.520   73.800
CA  104.130   88.970   75.880
CA  106.850   88.620   73.060
CA  104.420   90.340   70.710
CA  104.330   93.290   73.020
CA  108.150   93.170   73.120
CA  108.530   92.690   69.330
CA  110.030   96.280   68.500
CA  112.010   96.980   71.800
CA  113.520   93.590   73.120
CA  116.820   92.820   71.150
CA  117.130   90.260   68.400
CA  119.250   87.550   70.420
CA  116.910   88.150   73.520
CA  113.840   87.620   71.270
CA  115.550   84.540   69.920
CA  116.320   82.960   73.380
CA  112.520   83.280   74.200
CA  111.320   82.010   70.720
CA  113.860   79.100   70.950
CA  112.600   78.510   74.570
CA  109.060   78.560   73.360
CA  110.070   76.020   70.730
CA  111.450   73.850   73.540
CA  108.150   74.200   75.490
CA  105.950   73.520   72.470
CA  107.850   70.360   71.750
CA  107.620   69.360   75.430
CA  103.890   69.850   75.450
CA  103.310   67.280   72.580
CA  105.720   64.820   74.440
CA  104.920   62.220   77.100
CA  107.340   63.150   80.040
CA  105.900   65.290   82.790
CA  109.080   66.500   84.580
CA  110.600   67.380   81.160
CA  107.730   69.750   80.520
CA  108.470   71.300   83.920
CA  112.070   71.560   82.920
CA  111.280   73.320   79.650
CA  108.940   75.750   81.660
CA  112.030   76.500   83.910
CA  114.320   76.920   80.760
CA  111.750   79.460   79.510
CA  111.370   81.110   82.950
CA  115.080   81.710   82.990
CA  115.100   83.560   79.510
CA  111.970   85.590   80.400
CA  113.240   87.550   83.420
CA  113.550   90.990   81.730
CA  110.390   90.210   79.680
CA  108.260   90.340   82.920
CA  109.990   93.620   83.980
CA  109.490   95.380   80.600
CA  108.210   99.080   80.430
